
*:      Tree Diagram

*:      Kasem Kamolchaipisit
*:      thai_vfp@hotmail.com
*:      http://members.xoom.com/thai_vfp
*:      
*:      
*:      
*:      
*:      
*:      
*:      
*:      
*:      
*:      

MAIN
쳐컴errhand
쳐컴RESIZE
읕컴MENU

BC2BE

BE2BC

BEEP

CHKSKIP

CHKSKIP

DECRYPT_IT

ENCRYPT_IT

ENCRYPT_IT

ENCRYPT_IT

FINDFILE

FINFOLDER

GBACKGND

GBACKGND

GETSYSDIR

GETTEMPDIR

GETUSER

GETVOL

INVTOTAL

MYMENU

NUM2ENG

NUM2ENG

NUM2ENG

INVTOTAL

INVTOTAL

INVTOTAL

PROGRAM1

PROGRAM2

PROGRAM3

__RI_DELETE_inv_head

__RI_DELETE_customer

__RI_DELETE_customer

__RI_DELETE_customer

__RI_DELETE_customer

__RI_UPDATE_customer

shortcut

SHUT_DOWN

SHUT_DOWN

SHUT_DOWN

TCDOW

TCDOW

TCDOW

TESTPRN

THERMO

TOPWINDOW

TOPWINDOW

TSCDOW

TSCDOW

TSCDOW

UTILITY

WINEXIT

_1cn0qg0ff

__RI_DELETE_customer

__RI_DELETE_inv_head

__RI_DELETE_product

__RI_DELETE_salesman

__RI_UPDATE_customer

__RI_UPDATE_inv_head

__RI_UPDATE_product

__RI_UPDATE_salesman


******************************
Class Hierarchy
checkbox                                
읕컴Check1                                    PRO_FP.SCX

combobox                                
읕컴mycombobox                                MYCLASS.VCX
    쳐컴Mycombobox1                           CUSTOMER.SCX
    쳐컴cFromCust_id                          CUSTOMER1.SCX
    쳐컴cToCust_id                            CUSTOMER1.SCX
    쳐컴cFromCust_id                          CUSTRPT.SCX
    쳐컴cToCust_id                            CUSTRPT.SCX
    쳐컴cmbCust_Id                            INVOICE.SCX
    쳐컴Mycombobox1                           INVOICE.SCX
    쳐컴Prod_idCmbItem                        INVOICE.SCX
    쳐컴cFromProd_id                          PRODUCT1.SCX
    쳐컴cToProd_id                            PRODUCT1.SCX
    쳐컴cFromSales_id                         SALESMAN1.SCX
    읕컴cToSales_id                           SALESMAN1.SCX

commandbutton                           
쳐컴mycommandbutton                           MYCLASS.VCX
   쳐컴CmdCancel                             CUSTOMER1.SCX
   쳐컴cmdPrint                              CUSTOMER1.SCX
   쳐컴CmdCancel                             CUSTRPT.SCX
   쳐컴cmdPrint                              CUSTRPT.SCX
   쳐컴Mycommandbutton2                      LOGIN.SCX
   쳐컴Mycommandbutton1                      LOGIN.SCX
   쳐컴CmdCancel                             PRODUCT1.SCX
   쳐컴cmdPrint                              PRODUCT1.SCX
   쳐컴CmdCancel                             SALESMAN1.SCX
   읕컴cmdPrint                              SALESMAN1.SCX
쳐컴Command1                                  PRO_FP.SCX
쳐컴Command2                                  PRO_FP.SCX
쳐컴Command1                                  REP_INV.SCX
쳐컴Command2                                  REP_INV.SCX
쳐컴Command1                                  SALEINV.SCX
쳐컴cmds                                      SALEINV.SCX
쳐컴CmdSave                                   SALEINV.SCX
쳐컴CmdCancel                                 SALEINV.SCX
쳐컴find                                      SALEINV.SCX
쳐컴Command1                                  THERMOMETER.SCX
읕컴Command2                                  THERMOMETER.SCX

commandgroup                            
읕컴mynavbutton                               MYCLASS.VCX
    쳐컴Mynavbutton1                          CUSTOMER.SCX
    쳐컴Mynavbutton1                          INVOICE.SCX
    쳐컴Mynavbutton1                          PRODUCT.SCX
    읕컴Mynavbutton1                          SALESMAN.SCX

container                               
쳐컴myclock                                   MYCLASS.VCX
쳐컴Container1                                SALEINV.SCX
읕컴container2                                SALEINV.SCX

cursor                                  
쳐컴Cursor1                                   CUSTINQ.SCX
쳐컴Cursor1                                   CUSTOMER.SCX
쳐컴Cursor2                                   CUSTOMER.SCX
쳐컴Cursor1                                   FIND_PRO.SCX
쳐컴Cursor1                                   INVINQ.SCX
쳐컴Cursor2                                   INVINQ.SCX
쳐컴Cursor1                                   INVOICE.SCX
쳐컴Cursor2                                   INVOICE.SCX
쳐컴Cursor3                                   INVOICE.SCX
쳐컴Cursor4                                   INVOICE.SCX
쳐컴Cursor1                                   LOGIN.SCX
쳐컴Cursor1                                   PRO_FP.SCX
쳐컴Cursor1                                   PRODINQ.SCX
쳐컴Cursor1                                   PRODUCT.SCX
쳐컴Cursor1                                   REP_INV.SCX
쳐컴Cursor2                                   REP_INV.SCX
쳐컴Cursor3                                   REP_INV.SCX
쳐컴Cursor4                                   REP_INV.SCX
쳐컴Cursor1                                   SALEINV.SCX
쳐컴Cursor2                                   SALEINV.SCX
쳐컴Cursor3                                   SALEINV.SCX
쳐컴Cursor4                                   SALEINV.SCX
쳐컴Cursor5                                   SALEINV.SCX
쳐컴Cursor1                                   SALESINQ.SCX
읕컴Cursor1                                   SALESMAN.SCX

editbox                                 
읕컴myeditbox                                 MYCLASS.VCX
    쳐컴edtNote                               CUSTOMER.SCX
    읕컴edtNote                               SALESMAN.SCX

form                                    
쳐컴productinq                                FIND_PRO.SCX
쳐컴LOGO                                      LOGO.SCX
쳐컴myform                                    MYCLASS.VCX
   쳐컴CustomerInquiry                       CUSTINQ.SCX
   쳐컴CUSTOMER                              CUSTOMER.SCX
   쳐컴CUSTOMER1                             CUSTOMER1.SCX
   쳐컴custrpt                               CUSTRPT.SCX
   쳐컴InvoiceInquiry                        INVINQ.SCX
   쳐컴invoice                               INVOICE.SCX
   쳐컴LOGIN                                 LOGIN.SCX
   쳐컴MYPREVIEW                             MYPREVIEW.SCX
   쳐컴SalesmanInquiry                       PRODINQ.SCX
   쳐컴salesman                              PRODUCT.SCX
   쳐컴PRODUCT1                              PRODUCT1.SCX
   쳐컴saleinv                               SALEINV.SCX
   쳐컴SalesmanInquiry                       SALESINQ.SCX
   쳐컴salesman                              SALESMAN.SCX
   읕컴SALESMAN1                             SALESMAN1.SCX
쳐컴BARCODE                                   PRO_FP.SCX
쳐컴Testform                                  PROGRAM1.PRG
쳐컴Testform                                  PROGRAM2.PRG
쳐컴DisplayColor                              PROGRAM2.PRG
쳐컴Testform                                  PROGRAM3.PRG
쳐컴Form1                                     REP_INV.SCX
읕컴THERMO                                    THERMOMETER.SCX

grid                                    
쳐컴grdCustomer                               CUSTINQ.SCX
쳐컴grdProduct                                FIND_PRO.SCX
쳐컴grdInvoice                                INVINQ.SCX
쳐컴grdInv_dtl                                INVOICE.SCX
쳐컴Grid1                                     PRO_FP.SCX
쳐컴grdProduct                                PRODINQ.SCX
쳐컴Grid1                                     SALEINV.SCX
읕컴grdSalesman                               SALESINQ.SCX

header                                  
쳐컴Header1                                   CUSTINQ.SCX
쳐컴Header1                                   CUSTINQ.SCX
쳐컴Header1                                   CUSTINQ.SCX
쳐컴Header1                                   FIND_PRO.SCX
쳐컴Header1                                   FIND_PRO.SCX
쳐컴Header1                                   INVINQ.SCX
쳐컴Header1                                   INVINQ.SCX
쳐컴Header1                                   INVOICE.SCX
쳐컴Header1                                   INVOICE.SCX
쳐컴Header1                                   INVOICE.SCX
쳐컴Header1                                   INVOICE.SCX
쳐컴Header1                                   INVOICE.SCX
쳐컴Header1                                   INVOICE.SCX
쳐컴Header1                                   PRO_FP.SCX
쳐컴Header1                                   PRO_FP.SCX
쳐컴Header1                                   PRO_FP.SCX
쳐컴Header1                                   PRODINQ.SCX
쳐컴Header1                                   PRODINQ.SCX
쳐컴Header1                                   SALEINV.SCX
쳐컴Header1                                   SALEINV.SCX
쳐컴Header1                                   SALEINV.SCX
쳐컴Header1                                   SALEINV.SCX
쳐컴Header1                                   SALEINV.SCX
쳐컴Header1                                   SALEINV.SCX
쳐컴Header1                                   SALEINV.SCX
쳐컴Header1                                   SALEINV.SCX
쳐컴Header1                                   SALESINQ.SCX
읕컴Header1                                   SALESINQ.SCX

label                                   
쳐컴Label1                                    FIND_PRO.SCX
쳐컴mylabel                                   MYCLASS.VCX
   쳐컴lblCust_id                            CUSTOMER.SCX
   쳐컴lblCompany                            CUSTOMER.SCX
   쳐컴lblContact                            CUSTOMER.SCX
   쳐컴lblAddress1                           CUSTOMER.SCX
   쳐컴lblAddress2                           CUSTOMER.SCX
   쳐컴lblTelphone                           CUSTOMER.SCX
   쳐컴lblCreditlmt                          CUSTOMER.SCX
   쳐컴lblTerm_day                           CUSTOMER.SCX
   쳐컴lblSales_id                           CUSTOMER.SCX
   쳐컴lblNote                               CUSTOMER.SCX
   쳐컴Mylabel1                              CUSTOMER1.SCX
   쳐컴Mylabel2                              CUSTOMER1.SCX
   쳐컴Mylabel3                              CUSTOMER1.SCX
   쳐컴Mylabel4                              CUSTOMER1.SCX
   쳐컴Mylabel1                              CUSTRPT.SCX
   쳐컴Mylabel2                              CUSTRPT.SCX
   쳐컴Mylabel3                              CUSTRPT.SCX
   쳐컴Mylabel4                              CUSTRPT.SCX
   쳐컴lblInv_no                             INVOICE.SCX
   쳐컴lblInv_date                           INVOICE.SCX
   쳐컴lblCust_id                            INVOICE.SCX
   쳐컴lblTerm_day                           INVOICE.SCX
   쳐컴lblCompany                            INVOICE.SCX
   쳐컴Mylabel1                              INVOICE.SCX
   쳐컴Mylabel2                              INVOICE.SCX
   쳐컴Mylabel3                              INVOICE.SCX
   쳐컴Mylabel4                              INVOICE.SCX
   쳐컴Mylabel1                              LOGIN.SCX
   쳐컴Mylabel2                              LOGIN.SCX
   쳐컴Mylabel3                              LOGIN.SCX
   쳐컴Mylabel4                              LOGIN.SCX
   쳐컴Mylabel1                              LOGO.SCX
   쳐컴Mylabel2                              LOGO.SCX
   쳐컴Mylabel3                              LOGO.SCX
   쳐컴Mylabel4                              LOGO.SCX
   쳐컴lblProd_id                            PRODUCT.SCX
   쳐컴lblProd_name                          PRODUCT.SCX
   쳐컴lblUm                                 PRODUCT.SCX
   쳐컴lblUnitprice                          PRODUCT.SCX
   쳐컴Mylabel1                              PRODUCT1.SCX
   쳐컴Mylabel2                              PRODUCT1.SCX
   쳐컴Mylabel3                              PRODUCT1.SCX
   쳐컴Mylabel4                              PRODUCT1.SCX
   쳐컴lblSales_id                           SALESMAN.SCX
   쳐컴lblName                               SALESMAN.SCX
   쳐컴lblAddress1                           SALESMAN.SCX
   쳐컴lblAddress2                           SALESMAN.SCX
   쳐컴lblTelphone                           SALESMAN.SCX
   쳐컴lblCommrate                           SALESMAN.SCX
   쳐컴lblNote                               SALESMAN.SCX
   쳐컴Mylabel1                              SALESMAN1.SCX
   쳐컴Mylabel2                              SALESMAN1.SCX
   쳐컴Mylabel3                              SALESMAN1.SCX
   읕컴Mylabel4                              SALESMAN1.SCX
쳐컴Label1                                    MYCLASS.VCX
쳐컴Label1                                    PRO_FP.SCX
쳐컴Label1                                    REP_INV.SCX
쳐컴lblRun_no                                 SALEINV.SCX
쳐컴lblInv_date                               SALEINV.SCX
쳐컴lblCust_id                                SALEINV.SCX
쳐컴Label1                                    SALEINV.SCX
쳐컴Label2                                    SALEINV.SCX
쳐컴Label3                                    SALEINV.SCX
쳐컴Label4                                    SALEINV.SCX
쳐컴Label5                                    SALEINV.SCX
쳐컴Label6                                    SALEINV.SCX
쳐컴Label7                                    SALEINV.SCX
쳐컴Label1                                    THERMOMETER.SCX
읕컴Label2                                    THERMOMETER.SCX

line                                    
읕컴Line1                                     LOGO.SCX

textbox                                 
쳐컴Text1                                     CUSTINQ.SCX
쳐컴Text1                                     CUSTINQ.SCX
쳐컴Text1                                     CUSTINQ.SCX
쳐컴Text1                                     FIND_PRO.SCX
쳐컴Text1                                     FIND_PRO.SCX
쳐컴Text1                                     FIND_PRO.SCX
쳐컴Text1                                     INVINQ.SCX
쳐컴Text1                                     INVINQ.SCX
쳐컴Text1                                     INVOICE.SCX
쳐컴Text1                                     INVOICE.SCX
쳐컴Text1                                     INVOICE.SCX
쳐컴Text1                                     INVOICE.SCX
쳐컴Text1                                     INVOICE.SCX
쳐컴mytextbox                                 MYCLASS.VCX
   쳐컴Mytextbox1                            CUSTINQ.SCX
   쳐컴txtCust_id                            CUSTOMER.SCX
   쳐컴txtCompany                            CUSTOMER.SCX
   쳐컴txtContact                            CUSTOMER.SCX
   쳐컴txtAddress1                           CUSTOMER.SCX
   쳐컴txtAddress2                           CUSTOMER.SCX
   쳐컴txtTelphone                           CUSTOMER.SCX
   쳐컴txtCreditlmt                          CUSTOMER.SCX
   쳐컴txtTerm_day                           CUSTOMER.SCX
   쳐컴txtSales_id                           CUSTOMER.SCX
   쳐컴cFileName                             CUSTOMER1.SCX
   쳐컴cFileName                             CUSTRPT.SCX
   쳐컴Mytextbox1                            INVINQ.SCX
   쳐컴txtInv_no                             INVOICE.SCX
   쳐컴txtInv_date                           INVOICE.SCX
   쳐컴txtCust_id                            INVOICE.SCX
   쳐컴txtTerm_day                           INVOICE.SCX
   쳐컴txtCompany                            INVOICE.SCX
   쳐컴txtDueDate                            INVOICE.SCX
   쳐컴Prod_IdItem                           INVOICE.SCX
   쳐컴Prod_NameItem                         INVOICE.SCX
   쳐컴QuantityItem                          INVOICE.SCX
   쳐컴UnitPriceItem                         INVOICE.SCX
   쳐컴txtTotalAmount                        INVOICE.SCX
   쳐컴txtTotalRec                           INVOICE.SCX
   쳐컴Mytextbox1                            LOGIN.SCX
   쳐컴Mytextbox2                            LOGIN.SCX
   쳐컴Mytextbox1                            PRODINQ.SCX
   쳐컴txtProd_id                            PRODUCT.SCX
   쳐컴txtProd_Name                          PRODUCT.SCX
   쳐컴txtUm                                 PRODUCT.SCX
   쳐컴txtUnitprice                          PRODUCT.SCX
   쳐컴cFileName                             PRODUCT1.SCX
   쳐컴Mytextbox1                            SALESINQ.SCX
   쳐컴txtSales_id                           SALESMAN.SCX
   쳐컴txtName                               SALESMAN.SCX
   쳐컴txtAddress1                           SALESMAN.SCX
   쳐컴txtAddress2                           SALESMAN.SCX
   쳐컴txtTelphone                           SALESMAN.SCX
   쳐컴txtCommrate                           SALESMAN.SCX
   읕컴cFileName                             SALESMAN1.SCX
쳐컴Text1                                     PRO_FP.SCX
쳐컴Text1                                     PRO_FP.SCX
쳐컴Text1                                     PRO_FP.SCX
쳐컴Text1                                     PRODINQ.SCX
쳐컴Text1                                     PRODINQ.SCX
쳐컴Text1                                     REP_INV.SCX
쳐컴txtRun_no                                 SALEINV.SCX
쳐컴txtInv_date                               SALEINV.SCX
쳐컴txtCust_id                                SALEINV.SCX
쳐컴Text1                                     SALEINV.SCX
쳐컴Text1                                     SALEINV.SCX
쳐컴Text1                                     SALEINV.SCX
쳐컴Text1                                     SALEINV.SCX
쳐컴Text1                                     SALEINV.SCX
쳐컴Text1                                     SALEINV.SCX
쳐컴Text1                                     SALEINV.SCX
쳐컴Text1                                     SALEINV.SCX
쳐컴Text1                                     SALEINV.SCX
쳐컴text2                                     SALEINV.SCX
쳐컴text3                                     SALEINV.SCX
쳐컴text4                                     SALEINV.SCX
쳐컴text5                                     SALEINV.SCX
쳐컴text6                                     SALEINV.SCX
쳐컴text7                                     SALEINV.SCX
쳐컴Text1                                     SALESINQ.SCX
읕컴Text1                                     SALESINQ.SCX

optiongroup                             
쳐컴optGroup                                  CUSTOMER1.SCX
쳐컴optGroup                                  CUSTRPT.SCX
쳐컴optGroup                                  PRODUCT1.SCX
쳐컴optiongroup1                              REP_INV.SCX
읕컴optGroup                                  SALESMAN1.SCX

relation                                
쳐컴Relation1                                 INVINQ.SCX
쳐컴Relation1                                 INVOICE.SCX
쳐컴Relation2                                 INVOICE.SCX
읕컴Relation3                                 INVOICE.SCX

shape                                   
쳐컴shape1                                    THERMOMETER.SCX
읕컴Shape2                                    THERMOMETER.SCX

spinner                                 
읕컴SPinner1                                  PRO_FP.SCX

timer                                   
읕컴Timer1                                    MYCLASS.VCX
